Version 4
SHEET 1 1412 1552
WIRE -400 -192 -1088 -192
WIRE -240 -192 -400 -192
WIRE -112 -144 -144 -144
WIRE 0 -144 -32 -144
WIRE 80 -144 64 -144
WIRE 160 -144 80 -144
WIRE 288 -144 240 -144
WIRE 400 -144 288 -144
WIRE -240 -112 -240 -192
WIRE 400 -80 400 -144
WIRE -144 -64 -144 -144
WIRE 80 -64 80 -144
WIRE 288 -64 288 -144
WIRE -240 -32 -528 -32
WIRE -1088 -16 -1088 -192
WIRE -528 -16 -528 -32
WIRE -400 0 -400 -192
WIRE -352 0 -400 0
WIRE -240 0 -352 0
WIRE -240 16 -240 0
WIRE -528 48 -528 32
WIRE -144 80 -144 16
WIRE 80 80 80 0
WIRE 80 80 -144 80
WIRE 224 80 80 80
WIRE 288 80 288 0
WIRE 288 80 224 80
WIRE 400 80 400 0
WIRE 400 80 288 80
WIRE -528 96 -528 48
WIRE 224 96 224 80
WIRE -1088 144 -1088 64
WIRE -352 160 -352 80
WIRE -240 160 -240 96
WIRE -240 160 -352 160
WIRE -240 256 -240 160
WIRE -240 256 -384 256
WIRE -176 256 -240 256
WIRE -112 256 -176 256
WIRE -384 272 -384 256
WIRE -176 288 -176 256
WIRE -592 352 -720 352
WIRE -432 352 -512 352
WIRE -112 368 -112 336
WIRE -720 416 -720 352
WIRE -384 464 -384 368
WIRE -176 464 -176 352
WIRE -176 464 -384 464
WIRE -112 464 -112 432
WIRE -112 464 -176 464
WIRE -384 560 -384 464
WIRE -720 576 -720 496
FLAG 224 96 0
FLAG -720 576 0
FLAG -384 560 0
FLAG -528 96 0
FLAG -1088 144 0
SYMBOL ind2 -160 -80 R0
SYMATTR InstName L2
SYMATTR Value 5.12m
SYMATTR Type ind
SYMBOL res 384 -96 R0
SYMATTR InstName R1
SYMATTR Value 2.083
SYMBOL voltage -720 400 R0
WINDOW 123 0 0 Left 2
WINDOW 39 0 0 Left 2
SYMATTR InstName V3
SYMATTR Value PULSE(0 18 1m 20n 20n 6u 25u)
SYMBOL nmos -432 272 R0
SYMATTR InstName M1
SYMATTR Value BSC12DN20NS3
SYMBOL diode 0 -128 R270
WINDOW 0 32 32 VTop 2
WINDOW 3 0 32 VBottom 2
SYMATTR InstName D7
SYMBOL diode 96 0 R180
WINDOW 0 24 64 Left 2
WINDOW 3 24 0 Left 2
SYMATTR InstName D1
SYMBOL ind 144 -128 R270
WINDOW 0 32 56 VTop 2
WINDOW 3 5 56 VBottom 2
SYMATTR InstName L1
SYMATTR Value 500µ
SYMATTR SpiceLine Rser=30m
SYMBOL ind2 -256 0 R0
SYMATTR InstName L5
SYMATTR Value 2m
SYMATTR Type ind
SYMBOL ind2 -224 -16 R180
WINDOW 0 36 80 Left 2
WINDOW 3 36 40 Left 2
SYMATTR InstName L3
SYMATTR Value 2m
SYMATTR Type ind
SYMBOL diode -512 48 R180
WINDOW 0 24 64 Left 2
WINDOW 3 24 0 Left 2
SYMATTR InstName D2
SYMBOL voltage -1088 -32 R0
WINDOW 123 0 0 Left 2
WINDOW 39 0 0 Left 2
WINDOW 3 24 44 Left 2
SYMATTR Value 48
SYMATTR InstName V1
SYMBOL cap 272 -64 R0
SYMATTR InstName C2
SYMATTR Value 33µ
SYMATTR SpiceLine Rser=1m
SYMBOL res -128 240 R0
SYMATTR InstName R2
SYMATTR Value 1k
SYMBOL cap -128 368 R0
SYMATTR InstName C1
SYMATTR Value 1µ
SYMBOL diode -160 352 R180
WINDOW 0 24 64 Left 2
WINDOW 3 24 0 Left 2
SYMATTR InstName D4
SYMBOL ind -16 -160 R90
WINDOW 0 5 56 VBottom 2
WINDOW 3 32 56 VTop 2
SYMATTR InstName L4
SYMATTR Value 30µ
SYMBOL ind -368 -16 R0
SYMATTR InstName L6
SYMATTR Value 2m
SYMBOL res -496 336 R90
WINDOW 0 0 56 VBottom 2
WINDOW 3 32 56 VTop 2
SYMATTR InstName R3
SYMATTR Value 15
TEXT -240 -248 Left 2 !K L5 L3 L2 1
TEXT -912 432 Left 2 !.tran 0.02
TEXT -928 648 Left 2 !.model D D(Ron=0 Roff=1Meg Vfwd=0.7 Vrev=100)
